/*--------------------------------*- C++ -*----------------------------------*\
  =========                 |
  \\      /  F ield         | OpenFOAM: The Open Source CFD Toolbox
   \\    /   O peration     | Website:  https://openfoam.org
    \\  /    A nd           | Version:  8
     \\/     M anipulation  |
\*---------------------------------------------------------------------------*/
FoamFile
{
    version     2.0;
    format      ascii;
    class       featureEdgeMesh;
    location    "constant/triSurface";
    object      rv6-open.eMesh;
}
// * * * * * * * * * * * * * * * * * * * * * * * * * * * * * * * * * * * * * //


// points:

596
(
(1.84754 -0.135133 1.07797)
(1.84754 -0.0601712 1.07921)
(2.47109 -2.63002e-06 0.0807775)
(2.77664 -2.63002e-06 0.0638855)
(2.77362 -2.63002e-06 0.0580132)
(0.370627 -0.150606 0.682277)
(0.370627 -0.150173 0.681103)
(0.370628 -0.149788 0.680079)
(0.370628 -0.149816 0.680152)
(6.0706 -2.38997e-06 0.93868)
(6.0706 -1.79944e-07 0.673195)
(2.77665 -0.133473 0.0638958)
(2.77665 -0.139473 0.0638958)
(2.77362 -0.139473 0.0580132)
(2.75049 -0.133473 0.205629)
(2.47109 -0.133473 0.0804133)
(1.4207 -0.00160271 0.0667682)
(1.84754 -0.130745 1.07807)
(1.84754 -0.119026 1.07833)
(1.84754 -0.100663 1.07869)
(1.84754 -0.0956004 1.07877)
(1.84754 -0.089746 1.07886)
(1.84754 -0.0841108 1.07894)
(1.84754 -0.0663355 1.07915)
(1.84754 -0.0353369 1.07939)
(1.84754 -0.037085 1.07938)
(1.84754 -0.0387051 1.07937)
(1.84754 -0.547409 0.905813)
(1.84754 -0.547347 0.907659)
(1.84754 -0.547337 0.90795)
(1.84754 -0.0546339 1.07926)
(1.84754 -0.0487839 1.07931)
(1.84754 -0.0455183 1.07933)
(1.84754 -0.0420989 1.07935)
(1.84754 -0.0400096 1.07936)
(1.45872 -2.63002e-06 0.273121)
(1.4207 -2.63002e-06 0.12058)
(1.45872 -2.63002e-06 0.126583)
(1.4207 -2.63002e-06 0.0667682)
(2.02543 -2.63002e-06 0.244546)
(2.02543 -2.63002e-06 0.0730953)
(2.47109 -2.63002e-06 0.0804133)
(0.370614 -2.63002e-06 0.576828)
(0.370628 -0.149843 0.680225)
(0.370627 -0.149732 0.679933)
(0.370614 -0.150795 0.682807)
(0.370628 -0.151003 0.68338)
(0.37064 -0.149284 0.678766)
(0.370636 -0.151031 0.683453)
(2.75049 -0.173202 0.278105)
(2.75049 -0.166804 0.278034)
(2.75049 -0.139473 0.199012)
(2.75049 -0.139473 0.205629)
(2.47109 -0.133473 0.0807775)
(1.4207 -0.00160271 0.0667812)
(1.4207 -0.00160271 0.12058)
(2.02543 -0.00160271 0.0730955)
(2.02543 -0.00160271 0.244546)
(2.02543 -0.223522 0.0730953)
(2.33233 -0.28216 0.0359019)
(2.23939 -0.296438 0.0225965)
(2.33226 -0.29286 0.0465701)
(2.23966 -0.30725 0.0334476)
(2.77664 -0.133473 0.0638855)
(1.84754 -0.488729 1.02005)
(1.84754 -0.498315 1.01332)
(1.84754 -0.477497 1.02669)
(1.84754 -0.529679 0.977885)
(1.84754 -0.533721 0.970102)
(1.84754 -0.524924 0.985521)
(1.84754 -0.519723 0.992565)
(1.84754 -0.513763 0.999434)
(1.84754 -0.506566 1.00648)
(1.84754 -0.38486 1.05693)
(1.84754 -0.412581 1.05073)
(1.84754 -0.430904 1.04563)
(1.84754 -0.448388 1.03973)
(1.84754 -0.463438 1.03361)
(1.84754 -0.325313 1.06612)
(1.84754 -0.34334 1.06379)
(1.84754 -0.361459 1.06109)
(1.84754 -0.19001 1.07616)
(1.84754 -0.214159 1.07506)
(1.84754 -0.238851 1.07368)
(1.84754 -0.264035 1.07197)
(1.84754 -0.276793 1.07097)
(1.84754 -0.289651 1.06985)
(1.84754 -0.307407 1.06812)
(1.84754 -0.171319 1.07688)
(1.84754 -0.15302 1.07748)
(1.84754 -0.117675 1.07837)
(1.84754 -0.545147 0.931505)
(1.84754 -0.545584 0.928513)
(1.84754 -0.546092 0.924493)
(1.84754 -0.535723 0.96563)
(1.84754 -0.537528 0.961123)
(1.84754 -0.539148 0.956581)
(1.84754 -0.540595 0.952009)
(1.84754 -0.542182 0.946219)
(1.84754 -0.542886 0.943304)
(1.84754 -0.543531 0.940376)
(1.84754 -0.544122 0.937434)
(1.84754 -0.54466 0.934478)
(1.84754 -0.076011 1.07905)
(1.84754 -0.0680307 1.07914)
(1.84754 -0.0253874 1.07943)
(1.84754 -0.0319946 1.07941)
(1.84754 -0.547462 0.903656)
(1.84754 -0.547515 0.894824)
(1.84754 -0.547248 0.910068)
(1.84754 -0.54714 0.91217)
(1.84754 -0.547013 0.914256)
(1.84754 -0.546867 0.916328)
(1.84754 -0.546703 0.918386)
(1.84754 -0.546519 0.920433)
(1.84754 -0.546316 0.922468)
(1.84754 -0.0604845 1.07921)
(1.84754 -0.0524336 1.07928)
(1.84754 -0.0489633 1.07931)
(1.84754 -0.0429342 1.07935)
(1.84754 -2.63002e-06 1.07948)
(1.67399 -2.63002e-06 1.06088)
(0.945404 -2.63002e-06 0.982821)
(0.900529 -2.63002e-06 0.977596)
(1.24456 -2.63002e-06 1.01488)
(1.12718 -2.63002e-06 1.00231)
(1.37295 -2.63002e-06 1.02863)
(1.26438 -2.63002e-06 0.285035)
(1.10286 -2.63002e-06 0.301096)
(1.4167 -2.63002e-06 0.12058)
(1.41623 -2.63002e-06 0.120617)
(1.41577 -2.63002e-06 0.120727)
(1.41534 -2.63002e-06 0.120907)
(1.41494 -2.63002e-06 0.121153)
(1.41458 -2.63002e-06 0.121459)
(1.41533 -2.63002e-06 0.0606596)
(1.41493 -2.63002e-06 0.0609061)
(1.41402 -2.63002e-06 0.0619697)
(1.41385 -2.63002e-06 0.0624033)
(1.41374 -2.63002e-06 0.0628595)
(1.41425 -2.63002e-06 0.0655038)
(1.41458 -2.63002e-06 0.0659003)
(2.4306 -2.63002e-06 1.35057)
(2.48028 -2.63002e-06 1.35404)
(1.41427 -2.63002e-06 0.121817)
(1.41403 -2.63002e-06 0.122218)
(1.41385 -2.63002e-06 0.122653)
(1.41457 -2.63002e-06 0.0612119)
(1.41427 -2.63002e-06 0.0615693)
(2.38193 -2.63002e-06 1.3448)
(2.75049 -2.79999e-06 0.277256)
(2.67024 -2.63002e-06 0.273001)
(2.60202 -2.63002e-06 0.269695)
(2.48028 -2.67996e-06 0.264681)
(2.08258 -2.63002e-06 0.244546)
(1.4167 -2.63002e-06 0.12658)
(1.6207 -2.63002e-06 0.0348502)
(1.41622 -2.63002e-06 0.0603665)
(1.4187 -2.63002e-06 0.0667737)
(1.41576 -2.63002e-06 0.0604782)
(1.41399 -2.63002e-06 0.0650559)
(1.41498 -2.63002e-06 0.0662335)
(1.41543 -2.63002e-06 0.0664933)
(1.41591 -2.63002e-06 0.0666721)
(1.41642 -2.63002e-06 0.0667645)
(1.4137 -2.63002e-06 0.0633271)
(1.4137 -2.63002e-06 0.0637774)
(1.41671 -2.63002e-06 0.0667775)
(1.41371 -2.63002e-06 0.06406)
(1.41381 -2.63002e-06 0.0645698)
(1.87997 -2.63002e-06 0.0181353)
(2.05238 -2.63002e-06 0.0144193)
(2.08258 -2.63002e-06 0.0730953)
(2.054 -2.63002e-06 0.0144188)
(2.26734 -2.63002e-06 0.0750939)
(2.22957 -2.63002e-06 0.0215972)
(1.41374 -2.63002e-06 0.123111)
(1.4137 -2.63002e-06 0.12358)
(1.41375 -2.63002e-06 0.124101)
(2.49927 -2.63002e-06 0.0716599)
(2.47109 -2.63002e-06 0.0743853)
(2.45598 -2.63002e-06 0.0689906)
(2.35611 -2.63002e-06 0.0407206)
(2.49985 -2.63002e-06 0.0776321)
(2.60897 -2.63002e-06 0.0706133)
(2.62983 -2.63002e-06 0.0637388)
(1.99798 -2.63002e-06 1.18643)
(2.10909 -2.63002e-06 1.25408)
(0.749992 -2.63002e-06 0.958858)
(0.530636 -2.63002e-06 0.927012)
(0.370614 -2.63002e-06 0.897363)
(0.29876 -2.63002e-06 0.880967)
(2.21906 -2.63002e-06 1.30399)
(2.31262 -2.63002e-06 1.33186)
(1.4152 -2.63002e-06 0.126178)
(1.41567 -2.63002e-06 0.126399)
(1.4141 -2.63002e-06 0.12508)
(1.4144 -2.63002e-06 0.125508)
(1.41477 -2.63002e-06 0.125878)
(1.41388 -2.63002e-06 0.124606)
(1.41618 -2.63002e-06 0.126534)
(0.29876 -2.63002e-06 0.593223)
(0.195657 -2.63002e-06 0.622154)
(0.195657 -2.63002e-06 0.852037)
(0.115881 -2.63002e-06 0.651542)
(0.115881 -2.63002e-06 0.822649)
(0.0601786 -2.63002e-06 0.678779)
(0.0262782 -2.63002e-06 0.70125)
(0.00224426 -2.63002e-06 0.727736)
(0.000756828 -2.63002e-06 0.731576)
(0.000139453 -2.63002e-06 0.734496)
(1.76964e-06 -2.63002e-06 0.737095)
(0.0601786 -2.63002e-06 0.795411)
(0.000139453 -2.63002e-06 0.739694)
(0.000756828 -2.63002e-06 0.742615)
(0.00224426 -2.63002e-06 0.746455)
(0.00501664 -2.63002e-06 0.751297)
(0.0262782 -2.63002e-06 0.77294)
(0.0113883 -2.63002e-06 0.759321)
(0.0113883 -2.63002e-06 0.71487)
(0.00501664 -2.63002e-06 0.722894)
(0.370628 -0.150818 0.682865)
(0.370625 -0.149281 0.678767)
(0.370631 -0.147389 0.674137)
(0.370614 -0.144955 0.668726)
(0.370628 -0.149795 0.680098)
(0.370628 -0.149802 0.680116)
(0.370628 -0.150924 0.683159)
(0.370628 -0.150977 0.683306)
(0.370628 -0.149954 0.680518)
(0.632492 -2.63002e-06 0.393257)
(0.720236 -2.63002e-06 0.365542)
(0.949914 -2.63002e-06 0.319643)
(0.823377 -2.63002e-06 0.341316)
(0.394818 -2.63002e-06 0.546327)
(0.423349 -2.63002e-06 0.516336)
(0.485765 -2.63002e-06 0.466116)
(0.555195 -2.63002e-06 0.426043)
(0.456096 -2.63002e-06 0.487835)
(0.59481 -2.63002e-06 0.408022)
(6.0706 -0.021418 0.934502)
(6.0706 -0.0175381 0.936114)
(3.75675 -2.63002e-06 1.19087)
(3.56393 -2.63002e-06 1.21189)
(4.28118 -2.63002e-06 1.13371)
(4.52803 -2.63002e-06 1.10681)
(5.19301 -2.63002e-06 1.03433)
(5.29932 -2.63002e-06 1.02274)
(5.68496 -2.63002e-06 0.980712)
(6.0706 -0.00987351 0.937982)
(6.0706 -0.0232958 0.933505)
(6.0706 -0.025711 0.931969)
(6.0706 -0.0163025 0.936521)
(6.0706 -0.0133701 0.937312)
(6.0706 -0.0393875 0.913274)
(6.0706 -0.0371591 0.918203)
(6.0706 -0.0419959 0.905617)
(6.0706 -0.041054 0.908674)
(6.0706 -0.0407821 0.90949)
(6.0706 -0.0359057 0.920508)
(6.0706 -0.0348599 0.922225)
(6.0706 -0.033733 0.923893)
(6.0706 -0.0334199 0.924326)
(6.0706 -0.0312159 0.927053)
(6.0706 -0.0296931 0.92865)
(6.0706 -0.0283263 0.929917)
(6.0706 -0.0455483 0.889265)
(6.0706 -0.0452474 0.891075)
(6.0706 -0.0439905 0.897622)
(2.63106 -2.63002e-06 1.3529)
(2.58785 -2.63002e-06 1.35475)
(3.04292 -2.63002e-06 1.29842)
(2.79853 -2.63002e-06 1.33724)
(3.37723 -2.63002e-06 1.23338)
(3.41215 -2.67996e-06 1.22843)
(3.46752 -2.63002e-06 1.2224)
(6.0706 -0.0467855 0.880442)
(6.0706 -0.0485863 0.860425)
(6.0706 -0.0498228 0.827902)
(6.0706 -0.0500026 0.805903)
(6.0706 -0.0494202 0.767662)
(6.0706 -0.0493012 0.764458)
(6.0706 -0.0473858 0.73569)
(6.0706 -0.0460095 0.724487)
(6.0706 -0.045074 0.718711)
(6.0706 -0.0400753 0.699542)
(6.0706 -0.0387871 0.696369)
(6.0706 -0.0369488 0.692569)
(6.0706 -0.0359023 0.690714)
(6.0706 -0.0423783 0.706647)
(6.0706 -0.0408166 0.701601)
(6.0706 -0.0337362 0.687433)
(6.0706 -0.0325519 0.685903)
(6.0706 -0.0101937 0.673904)
(6.0706 -0.0156196 0.675058)
(6.0706 -0.0303107 0.683421)
(6.0706 -0.0286484 0.681873)
(6.0706 -0.026455 0.680139)
(6.0706 -0.0240799 0.678589)
(6.0706 -0.0169897 0.675465)
(6.0706 -0.0221035 0.677516)
(3.92118 -2.67996e-06 0.376445)
(4.26131 -2.63002e-06 0.414995)
(3.80496 -2.67996e-06 0.363277)
(4.71983 -2.08997e-06 0.46697)
(5.11751 -1.48997e-06 0.512121)
(3.34348 -2.67996e-06 0.318397)
(3.55572 -2.67996e-06 0.337276)
(2.97872 -2.67996e-06 0.291176)
(6.03399 3.41916e-11 0.664463)
(5.9247 -1.79944e-07 0.639717)
(5.74156 -5.40016e-07 0.602674)
(5.45291 -8.99973e-07 0.554944)
(4.48548 -2.38997e-06 0.440405)
(2.75049 -0.173202 0.233831)
(2.18173 -0.313523 0.0298963)
(2.20842 -0.310928 0.0317236)
(2.75049 -0.171183 0.221412)
(2.75049 -0.168837 0.216056)
(2.75049 -0.163254 0.220098)
(2.75049 -0.165129 0.224427)
(2.75049 -0.172726 0.227637)
(2.75049 -0.166804 0.234784)
(2.75049 -0.166635 0.231393)
(2.75049 -0.166135 0.228127)
(2.75049 -0.143712 0.199253)
(2.75049 -0.144079 0.206121)
(2.75049 -0.149164 0.200335)
(2.75049 -0.148372 0.207271)
(2.75049 -0.154126 0.202183)
(2.75049 -0.149403 0.207659)
(2.75049 -0.151228 0.208467)
(2.75049 -0.15869 0.204777)
(2.75049 -0.154888 0.210619)
(2.75049 -0.162326 0.207679)
(2.75049 -0.157505 0.212707)
(2.75049 -0.165999 0.211698)
(2.75049 -0.160558 0.215974)
(2.75049 -0.162975 0.21959)
(2.40237 -0.267068 0.0521964)
(2.35614 -0.276637 0.0407276)
(1.4167 -0.00160271 0.06678)
(1.72675 -0.283229 0.0264956)
(1.62053 -0.263882 0.034866)
(1.56917 -0.25622 0.0401835)
(2.4236 -0.263318 0.0584442)
(2.30874 -0.285218 0.0316652)
(2.18578 -0.301179 0.0181888)
(2.145 -0.305363 0.0161543)
(2.37302 -0.284952 0.0563571)
(2.4229 -0.273912 0.0688311)
(2.31004 -0.296838 0.0437107)
(2.14526 -0.316246 0.0270444)
(2.46811 -0.260889 0.0789657)
(2.51136 -0.248173 0.0954366)
(2.51137 -0.241047 0.0906018)
(2.46804 -0.252862 0.0734857)
(2.42394 -0.265429 0.0589513)
(2.42409 -0.271138 0.0628273)
(2.74797 -0.133473 0.20446)
(2.73868 -0.133473 0.200184)
(2.60119 -0.133473 0.136169)
(2.62983 -0.139473 0.0637388)
(2.49927 -0.139473 0.0716599)
(2.47109 -0.139473 0.0743853)
(1.84754 -0.532969 0.971485)
(1.84754 -0.530693 0.975882)
(1.84754 -0.491008 1.01836)
(1.84754 -0.481523 1.02426)
(1.84754 -0.525631 0.984275)
(1.84754 -0.51987 0.992186)
(1.84754 -0.519018 0.993241)
(1.84754 -0.513853 0.999138)
(1.84754 -0.510768 1.00231)
(1.84754 -0.443277 1.04142)
(1.84754 -0.422317 1.048)
(1.84754 -0.463751 1.0333)
(1.84754 -0.470777 1.02999)
(1.84754 -0.47768 1.02641)
(1.84754 -0.334279 1.06493)
(1.84754 -0.303912 1.06842)
(1.84754 -0.35641 1.0618)
(1.84754 -0.378495 1.05804)
(1.84754 -0.40196 1.05267)
(1.84754 -0.507323 1.00559)
(1.84754 -0.50166 1.01049)
(1.84754 -0.499401 1.01229)
(1.84754 -0.243212 1.07337)
(1.84754 -0.212909 1.07509)
(1.84754 -0.258377 1.07234)
(1.84754 -0.273549 1.07118)
(1.84754 -0.288728 1.06988)
(1.84754 -0.165928 1.07705)
(1.84754 -0.142468 1.07776)
(1.84754 -0.545251 0.930723)
(1.84754 -0.544633 0.934525)
(1.84754 -0.545786 0.926905)
(1.84754 -0.535059 0.966992)
(1.84754 -0.536967 0.962413)
(1.84754 -0.538692 0.957758)
(1.84754 -0.540258 0.952976)
(1.84754 -0.541648 0.948135)
(1.84754 -0.542279 0.945695)
(1.84754 -0.542869 0.943244)
(1.84754 -0.543419 0.940781)
(1.84754 -0.543929 0.93831)
(1.84754 -0.0923287 1.07882)
(1.84754 -0.0838924 1.07894)
(1.84754 -0.0721872 1.07909)
(1.84754 -0.031236 1.07941)
(1.84754 -0.547268 0.909592)
(1.84754 -0.547172 0.911523)
(1.84754 -0.547061 0.913453)
(1.84754 -0.546932 0.915382)
(1.84754 -0.546786 0.917308)
(1.84754 -0.546623 0.919232)
(1.84754 -0.546442 0.921155)
(1.84754 -0.546242 0.923074)
(1.84754 -0.546024 0.924991)
(1.84754 -0.0517088 1.07928)
(1.84754 -0.0385473 1.07937)
(0.41993 -0.144685 0.826834)
(0.405535 -0.149848 0.811787)
(0.440382 -0.138421 0.84277)
(0.446169 -0.13676 0.846643)
(0.452423 -0.135001 0.850605)
(0.503843 -0.121267 0.877405)
(0.480464 -0.127403 0.866245)
(0.583679 -0.100552 0.908027)
(0.53069 -0.114305 0.888774)
(0.390589 -0.159202 0.7782)
(0.390418 -0.160132 0.774258)
(0.391856 -0.157334 0.785735)
(0.392965 -0.15634 0.789556)
(0.394475 -0.155252 0.793594)
(0.398445 -0.153 0.80153)
(1.69426 -0.219269 0.267619)
(1.72043 -0.234999 0.267449)
(1.76948 -0.26037 0.267222)
(1.78009 -0.265175 0.267182)
(1.58257 -0.134133 0.269105)
(1.6109 -0.158545 0.268579)
(1.62716 -0.171686 0.268329)
(1.67306 -0.205373 0.267796)
(1.4589 -0.00222188 0.273113)
(1.45941 -0.00435329 0.273089)
(1.45951 -0.00463319 0.273085)
(1.46005 -0.00596363 0.273061)
(1.46041 -0.00666982 0.273045)
(1.46106 -0.0077501 0.273015)
(1.46232 -0.00937041 0.272959)
(1.51326 -0.0660641 0.270969)
(1.4616 -0.00851141 0.272991)
(1.53454 -0.0882308 0.270301)
(1.5642 -0.117248 0.269515)
(1.81153 -0.278045 0.267072)
(1.84754 -0.290366 0.266941)
(0.63045 -0.0800894 0.425009)
(0.673727 -0.079667 0.404757)
(0.679073 -0.0795678 0.40246)
(0.547414 -0.0794672 0.474361)
(0.58625 -0.0799044 0.449261)
(0.494136 -0.0844189 0.516998)
(0.504874 -0.0826057 0.507441)
(0.522453 -0.0806052 0.492931)
(0.452649 -0.0980007 0.560578)
(0.453875 -0.0973865 0.559094)
(0.463726 -0.0930248 0.54768)
(0.468883 -0.0911062 0.542034)
(0.429616 -0.113532 0.592231)
(0.435196 -0.109504 0.584307)
(0.426175 -0.116015 0.597118)
(0.436759 -0.108376 0.582087)
(0.436828 -0.108326 0.581989)
(0.443559 -0.103468 0.57243)
(0.446479 -0.10136 0.568282)
(0.409378 -0.132382 0.627114)
(0.409678 -0.13206 0.6265)
(0.411906 -0.1297 0.622054)
(0.41825 -0.123302 0.610322)
(0.418804 -0.122766 0.609351)
(0.397864 -0.145802 0.655228)
(0.402606 -0.139971 0.642272)
(0.394739 -0.150124 0.666021)
(0.392118 -0.154534 0.678675)
(0.390439 -0.159757 0.697539)
(0.390418 -0.160302 0.699933)
(0.402659 -0.139909 0.642141)
(0.407586 -0.134329 0.63087)
(0.390418 -0.160384 0.773157)
(0.390418 -0.164068 0.747344)
(0.390418 -0.16207 0.709038)
(0.390418 -0.164384 0.735857)
(0.370614 -0.152908 0.689081)
(0.370628 -0.149791 0.680089)
(0.370614 -0.00252003 0.576848)
(0.370614 -0.00794953 0.577025)
(0.370614 -0.0158426 0.577613)
(0.370614 -0.0236689 0.578585)
(0.370614 -0.0300337 0.579667)
(0.370614 -0.0314148 0.579937)
(0.370614 -0.0390671 0.581662)
(0.370614 -0.048017 0.58419)
(2.26713 -0.303582 0.264329)
(2.35808 -0.287978 0.26419)
(2.37257 -0.285044 0.264338)
(2.45173 -0.267006 0.265847)
(2.48028 -0.259706 0.266623)
(2.13873 -0.316694 0.265357)
(2.2083 -0.310941 0.264796)
(2.22439 -0.309151 0.264667)
(1.87604 -0.298388 0.266886)
(1.90279 -0.304609 0.266821)
(1.96014 -0.313986 0.266611)
(2.02023 -0.318622 0.266267)
(2.054 -0.319202 0.266021)
(2.56154 -0.223522 0.269103)
(2.48028 -0.223522 0.265967)
(2.61662 -0.219682 0.271594)
(2.63356 -0.214163 0.272348)
(2.7484 -0.167576 0.277924)
(2.72888 -0.174742 0.276903)
(2.51258 -0.250976 0.267596)
(2.58359 -0.221893 0.270067)
(2.60718 -0.216409 0.271092)
(2.55191 -0.239693 0.268947)
(1.46106 -0.0077501 0.126583)
(1.46232 -0.00937041 0.126583)
(1.46005 -0.00596351 0.126583)
(1.45932 -0.00404912 0.126583)
(1.45887 -0.00204784 0.126583)
(1.78009 -0.265175 0.126602)
(1.82727 -0.28374 0.126605)
(1.87741 -0.298738 0.126608)
(1.89129 -0.302085 0.126416)
(1.87604 -0.298388 0.126608)
(1.90079 -0.304185 0.126097)
(1.90619 -0.305311 0.12586)
(1.92321 -0.308544 0.124909)
(1.94031 -0.311325 0.123715)
(1.94688 -0.312273 0.123209)
(1.95474 -0.31332 0.122579)
(1.95807 -0.313736 0.122305)
(1.96193 -0.314197 0.121983)
(1.96795 -0.314874 0.121473)
(1.97897 -0.315976 0.12052)
(1.6109 -0.158545 0.126592)
(1.65152 -0.190182 0.126594)
(1.69426 -0.21927 0.126597)
(1.73642 -0.243849 0.1266)
(1.53454 -0.0882311 0.126587)
(1.66384 -0.00160271 0.0680356)
(1.57342 -0.00160271 0.123363)
(1.52551 -0.00160271 0.120587)
(1.75729 -0.00160271 0.17593)
(1.65431 -0.00160271 0.139822)
(1.94942 -0.00160271 0.239841)
(1.87626 -0.00160271 0.222016)
(2.08258 -0.223522 0.244546)
(1.71033 -0.223522 0.0684826)
(1.75813 -0.223522 0.127399)
(1.77906 -0.223522 0.133851)
(1.80236 -0.223522 0.143267)
(1.81688 -0.223522 0.150263)
(2.08258 -0.223522 0.0730953)
(2.26734 -0.223522 0.0750939)
(2.42294 -0.223522 0.0790124)
(1.71764 -0.223522 0.120796)
(1.72713 -0.223522 0.121569)
(1.74237 -0.223522 0.123843)
(1.86033 -0.223522 0.175694)
(1.89076 -0.223522 0.195775)
(1.90941 -0.223522 0.207773)
(1.92878 -0.223522 0.219065)
(1.9322 -0.223522 0.22088)
(1.93889 -0.223522 0.224269)
(1.9644 -0.223522 0.234809)
(1.97184 -0.223522 0.237139)
(1.71033 -0.223522 0.120598)
(1.94938 -0.223522 0.229073)
(1.96033 -0.223522 0.233392)
(1.99259 -0.223522 0.241887)
(2.02543 -0.223522 0.244546)
(2.58226 -0.139473 0.120887)
(1.4187 -0.00160271 0.0667737)
(2.43107 -0.223303 0.0792857)
(2.43917 -0.222632 0.0795672)
(2.44243 -0.222221 0.0796832)
(2.44671 -0.221542 0.0798382)
(2.45292 -0.220226 0.0800679)
(2.45961 -0.218205 0.0803223)
(2.45971 -0.218168 0.0803263)
(2.46446 -0.216078 0.0805119)
(2.46631 -0.215002 0.0805851)
(2.49985 -0.133473 0.0776321)
(2.60897 -0.133473 0.0706133)
)


// edges:

632
(
(64 65)
(66 64)
(67 68)
(69 67)
(70 69)
(71 70)
(72 71)
(73 74)
(74 75)
(75 76)
(76 77)
(77 66)
(78 79)
(79 80)
(80 73)
(65 72)
(81 82)
(82 83)
(83 84)
(84 85)
(85 86)
(86 87)
(87 78)
(88 81)
(89 88)
(0 89)
(17 18)
(90 0)
(91 92)
(92 93)
(68 94)
(94 95)
(95 96)
(96 97)
(97 98)
(98 99)
(99 100)
(100 101)
(101 102)
(102 91)
(19 90)
(20 21)
(103 22)
(104 103)
(1 104)
(105 106)
(106 24)
(27 107)
(107 108)
(109 29)
(110 109)
(111 110)
(112 111)
(113 112)
(114 113)
(115 114)
(93 115)
(23 116)
(116 30)
(117 1)
(118 117)
(32 118)
(31 119)
(119 34)
(26 33)
(120 121)
(122 123)
(124 125)
(126 124)
(121 126)
(125 122)
(127 35)
(128 127)
(36 129)
(129 130)
(130 131)
(131 132)
(132 133)
(133 134)
(135 136)
(137 138)
(138 139)
(140 141)
(142 143)
(134 144)
(144 145)
(145 146)
(136 147)
(147 148)
(148 137)
(149 142)
(150 151)
(151 152)
(152 153)
(153 154)
(155 37)
(38 36)
(156 157)
(158 38)
(157 159)
(159 135)
(160 140)
(161 162)
(141 161)
(162 163)
(163 164)
(139 165)
(165 166)
(167 158)
(166 168)
(164 167)
(168 169)
(169 160)
(37 35)
(170 156)
(39 40)
(171 170)
(40 172)
(173 171)
(172 174)
(175 173)
(2 41)
(174 2)
(146 176)
(176 177)
(177 178)
(179 180)
(180 181)
(181 182)
(182 175)
(41 183)
(183 184)
(185 179)
(184 3)
(3 4)
(4 185)
(154 39)
(120 186)
(186 187)
(188 123)
(189 188)
(190 189)
(191 190)
(187 192)
(192 193)
(193 149)
(194 195)
(196 197)
(198 194)
(197 198)
(178 199)
(199 196)
(200 155)
(195 200)
(42 201)
(201 202)
(203 191)
(202 204)
(205 203)
(204 206)
(206 207)
(208 209)
(209 210)
(210 211)
(212 205)
(211 213)
(213 214)
(214 215)
(215 216)
(217 212)
(216 218)
(218 217)
(207 219)
(219 220)
(220 208)
(5 221)
(43 6)
(6 5)
(222 44)
(44 45)
(46 45)
(7 47)
(223 222)
(224 223)
(7 44)
(7 46)
(47 225)
(226 8)
(227 228)
(46 228)
(225 226)
(47 8)
(43 8)
(229 43)
(229 6)
(48 5)
(227 221)
(230 231)
(232 128)
(231 233)
(233 232)
(42 234)
(234 235)
(236 237)
(235 238)
(238 236)
(239 230)
(237 239)
(240 241)
(242 243)
(244 242)
(245 244)
(246 245)
(247 246)
(248 247)
(249 9)
(9 248)
(250 240)
(251 250)
(252 253)
(254 255)
(256 257)
(257 258)
(258 254)
(255 259)
(259 260)
(260 261)
(261 262)
(262 263)
(263 264)
(264 265)
(265 251)
(241 252)
(266 267)
(267 268)
(269 270)
(271 272)
(270 143)
(272 269)
(273 271)
(274 273)
(275 274)
(243 275)
(276 266)
(277 276)
(278 277)
(279 278)
(268 256)
(253 249)
(10 9)
(279 280)
(280 281)
(281 282)
(282 283)
(283 284)
(285 286)
(286 287)
(287 288)
(284 289)
(289 290)
(290 285)
(288 291)
(291 292)
(293 10)
(294 293)
(292 295)
(295 296)
(296 297)
(297 298)
(299 294)
(298 300)
(300 299)
(301 302)
(303 301)
(304 305)
(306 307)
(308 306)
(150 308)
(309 10)
(310 309)
(311 310)
(312 311)
(305 312)
(307 303)
(302 313)
(313 304)
(314 49)
(315 316)
(317 318)
(319 320)
(321 317)
(322 50)
(323 322)
(314 321)
(324 323)
(320 324)
(325 51)
(52 326)
(327 325)
(326 328)
(329 327)
(328 330)
(330 331)
(332 329)
(331 333)
(334 332)
(333 335)
(336 334)
(335 337)
(318 336)
(337 338)
(338 319)
(2 53)
(55 54)
(56 57)
(339 340)
(54 341)
(58 56)
(342 343)
(343 344)
(339 345)
(59 340)
(59 346)
(60 346)
(347 348)
(347 60)
(61 349)
(350 349)
(62 351)
(316 62)
(315 352)
(351 61)
(353 354)
(355 356)
(357 356)
(353 358)
(11 12)
(63 11)
(12 13)
(3 63)
(13 4)
(359 360)
(361 53)
(360 361)
(52 14)
(14 359)
(11 14)
(52 12)
(13 362)
(362 363)
(363 364)
(17 0)
(18 0)
(20 19)
(21 22)
(23 1)
(24 25)
(26 25)
(28 27)
(28 29)
(30 1)
(31 32)
(34 33)
(494 46)
(365 366)
(367 368)
(366 369)
(369 370)
(370 371)
(371 372)
(372 373)
(374 375)
(376 374)
(377 376)
(378 377)
(368 378)
(379 380)
(381 379)
(382 381)
(383 382)
(375 383)
(373 384)
(384 385)
(385 386)
(386 367)
(387 388)
(389 387)
(390 389)
(391 390)
(380 391)
(388 392)
(392 393)
(393 17)
(394 395)
(396 394)
(397 365)
(398 397)
(399 398)
(400 399)
(401 400)
(402 401)
(403 402)
(404 403)
(405 404)
(395 405)
(18 20)
(406 19)
(22 406)
(21 407)
(407 408)
(408 23)
(409 105)
(25 409)
(24 26)
(108 28)
(29 27)
(28 410)
(410 411)
(411 412)
(412 413)
(413 414)
(414 415)
(415 416)
(416 417)
(417 418)
(418 396)
(30 419)
(419 31)
(33 32)
(34 420)
(420 25)
(421 422)
(423 421)
(424 423)
(425 424)
(426 427)
(427 425)
(428 429)
(430 431)
(432 430)
(433 432)
(434 433)
(435 434)
(422 435)
(429 426)
(436 437)
(437 438)
(438 439)
(440 441)
(441 442)
(442 443)
(443 436)
(35 444)
(444 445)
(445 446)
(446 447)
(447 448)
(448 449)
(450 451)
(452 450)
(451 453)
(453 454)
(454 440)
(439 455)
(455 456)
(449 452)
(457 458)
(458 459)
(460 461)
(462 463)
(463 464)
(465 466)
(466 467)
(467 468)
(468 462)
(469 470)
(471 469)
(470 472)
(472 473)
(473 474)
(474 475)
(475 465)
(476 477)
(477 478)
(478 479)
(479 480)
(481 482)
(483 481)
(484 483)
(485 484)
(486 485)
(480 471)
(487 488)
(488 476)
(464 460)
(482 487)
(461 457)
(489 490)
(431 489)
(491 486)
(490 492)
(492 491)
(45 224)
(44 46)
(493 45)
(47 494)
(47 48)
(48 43)
(42 495)
(495 496)
(496 497)
(497 498)
(498 499)
(499 500)
(500 501)
(501 502)
(503 504)
(504 505)
(505 506)
(506 507)
(508 509)
(509 510)
(510 503)
(456 511)
(511 512)
(512 513)
(513 514)
(514 515)
(515 508)
(516 517)
(518 519)
(520 521)
(507 522)
(523 516)
(521 524)
(524 523)
(522 525)
(525 518)
(519 49)
(50 520)
(49 50)
(526 527)
(528 526)
(529 528)
(530 529)
(37 530)
(531 532)
(533 534)
(535 533)
(532 535)
(534 536)
(536 537)
(537 538)
(538 539)
(539 540)
(540 541)
(541 542)
(542 543)
(543 544)
(544 545)
(546 547)
(547 548)
(548 549)
(549 531)
(550 546)
(527 550)
(51 52)
(15 41)
(53 15)
(54 551)
(552 553)
(553 55)
(551 56)
(554 555)
(555 552)
(57 556)
(556 557)
(557 554)
(558 517)
(58 559)
(560 561)
(561 562)
(562 563)
(564 58)
(565 564)
(566 565)
(567 568)
(568 569)
(569 560)
(563 570)
(570 571)
(571 572)
(572 573)
(573 574)
(574 575)
(576 577)
(578 567)
(575 579)
(579 580)
(580 576)
(577 581)
(581 582)
(582 558)
(364 583)
(583 51)
(36 55)
(38 16)
(16 54)
(341 584)
(584 16)
(585 586)
(586 587)
(587 588)
(588 589)
(589 590)
(590 591)
(591 592)
(592 593)
(566 585)
(345 59)
(59 60)
(60 348)
(350 61)
(62 352)
(62 61)
(355 357)
(354 358)
(40 58)
(39 57)
(594 595)
(595 63)
(15 594)
)

// * * * * * * * * * * * * * * * * * * * * * * * * * * * * * * * * * * * * * //


// ************************************************************************* //
