/*--------------------------------*- C++ -*----------------------------------*\
  =========                 |
  \\      /  F ield         | OpenFOAM: The Open Source CFD Toolbox
   \\    /   O peration     | Website:  https://openfoam.org
    \\  /    A nd           | Version:  8
     \\/     M anipulation  |
\*---------------------------------------------------------------------------*/
FoamFile
{
    version     2.0;
    format      ascii;
    class       dictionary;
    location    "constant";
    object      fvOptions;
}
// * * * * * * * * * * * * * * * * * * * * * * * * * * * * * * * * * * * * * //

solidTofluid
{
    type            constantHeatTransfer;

    interpolationMethod cellVolumeWeight;
    nbrRegionName   fluid;
    master          true;

    nbrModel        fluidTosolid;
    fields          (h);
    semiImplicit    no;
}


// ************************************************************************* //
